<?xml version="1.0" ?><!-- generated on 16/11/2021 17:19:35 by Eclipse SUMO netedit Version 1.9.0
<configuration xmlns:xsi="http://www.w3.org/2001/XMLSchema-instance" xsi:noNamespaceSchemaLocation="http://sumo.dlr.de/xsd/netconvertConfiguration.xsd">

    <input>
        <sumo-net-file value="D:\Programas\sumo2\TCC\2osm.net.xml"/>
    </input>

    <output>
        <output-file value="D:\Programas\sumo2\TCC\2osm.net.xml"/>
        <output.street-names value="true"/>
    </output>

    <processing>
        <geometry.min-radius.fix.railways value="false"/>
        <geometry.max-grade.fix value="false"/>
        <offset.disable-normalization value="true"/>
        <lefthand value="false"/>
    </processing>

    <junctions>
        <no-turnarounds value="true"/>
        <junctions.corner-detail value="5"/>
        <junctions.limit-turn-speed value="5.5"/>
        <rectangular-lane-cut value="false"/>
    </junctions>

    <pedestrian>
        <walkingareas value="false"/>
    </pedestrian>

    <report>
        <aggregate-warnings value="5"/>
    </report>

</configuration>
--><net junctionCornerDetail="5" limitTurnSpeed="5.50" version="1.9" xmlns:xsi="http://www.w3.org/2001/XMLSchema-instance" xsi:noNamespaceSchemaLocation="http://sumo.dlr.de/xsd/net_file.xsd">

    <location convBoundary="1084.87,59.88,1419.26,425.70" netOffset="-188128.24,1742065.55" origBoundary="-47.910073,-15.737814,-47.894411,-15.733963" projParameter="+proj=utm +zone=23 +ellps=WGS84 +datum=WGS84 +units=m +no_defs"/>

    <type allow="pedestrian" id="highway.bridleway" numLanes="1" oneway="1" priority="1" speed="2.78" width="2.00"/>
    <type allow="bus" id="highway.bus_guideway" numLanes="1" oneway="1" priority="1" speed="27.78"/>
    <type allow="bicycle" id="highway.cycleway" numLanes="1" oneway="1" priority="1" speed="8.33" width="1.00"/>
    <type allow="pedestrian" id="highway.footway" numLanes="1" oneway="1" priority="1" speed="2.78" width="2.00"/>
    <type allow="army" id="highway.ford" numLanes="1" oneway="1" priority="1" speed="2.78"/>
    <type disallow="tram rail_urban rail rail_electric rail_fast ship" id="highway.living_street" numLanes="1" oneway="1" priority="2" speed="2.78"/>
    <type allow="private emergency authority army vip passenger hov taxi bus coach delivery truck trailer motorcycle evehicle custom1 custom2" id="highway.motorway" numLanes="2" oneway="1" priority="14" speed="39.44"/>
    <type allow="private emergency authority army vip passenger hov taxi bus coach delivery truck trailer motorcycle evehicle custom1 custom2" id="highway.motorway_link" numLanes="1" oneway="1" priority="9" speed="22.22"/>
    <type allow="pedestrian bicycle" id="highway.path" numLanes="1" oneway="1" priority="1" speed="2.78" width="2.00"/>
    <type allow="pedestrian" id="highway.pedestrian" numLanes="1" oneway="1" priority="1" speed="2.78" width="2.00"/>
    <type disallow="tram rail_urban rail rail_electric rail_fast ship" id="highway.primary" numLanes="2" oneway="1" priority="12" speed="27.78"/>
    <type disallow="tram rail_urban rail rail_electric rail_fast ship" id="highway.primary_link" numLanes="1" oneway="1" priority="7" speed="22.22"/>
    <type allow="vip" id="highway.raceway" numLanes="2" oneway="1" priority="15" speed="83.33"/>
    <type disallow="tram rail_urban rail rail_electric rail_fast ship" id="highway.residential" numLanes="1" oneway="1" priority="3" speed="13.89"/>
    <type disallow="tram rail_urban rail rail_electric rail_fast ship" id="highway.secondary" numLanes="1" oneway="1" priority="11" speed="27.78"/>
    <type disallow="tram rail_urban rail rail_electric rail_fast ship" id="highway.secondary_link" numLanes="1" oneway="1" priority="6" speed="22.22"/>
    <type allow="pedestrian delivery bicycle" id="highway.service" numLanes="1" oneway="1" priority="1" speed="5.56"/>
    <type allow="pedestrian" id="highway.stairs" numLanes="1" oneway="1" priority="1" speed="1.39" width="2.00"/>
    <type allow="pedestrian" id="highway.step" numLanes="1" oneway="1" priority="1" speed="1.39" width="2.00"/>
    <type allow="pedestrian" id="highway.steps" numLanes="1" oneway="1" priority="1" speed="1.39" width="2.00"/>
    <type disallow="tram rail_urban rail rail_electric rail_fast ship" id="highway.tertiary" numLanes="1" oneway="1" priority="10" speed="22.22"/>
    <type disallow="tram rail_urban rail rail_electric rail_fast ship" id="highway.tertiary_link" numLanes="1" oneway="1" priority="5" speed="22.22"/>
    <type allow="pedestrian motorcycle moped bicycle" id="highway.track" numLanes="1" oneway="1" priority="1" speed="5.56"/>
    <type disallow="pedestrian bicycle tram rail_urban rail rail_electric rail_fast ship" id="highway.trunk" numLanes="2" oneway="1" priority="13" speed="27.78"/>
    <type disallow="pedestrian bicycle tram rail_urban rail rail_electric rail_fast ship" id="highway.trunk_link" numLanes="1" oneway="1" priority="8" speed="22.22"/>
    <type disallow="tram rail_urban rail rail_electric rail_fast ship" id="highway.unclassified" numLanes="1" oneway="1" priority="4" speed="13.89"/>
    <type disallow="tram rail_urban rail rail_electric rail_fast ship" id="highway.unsurfaced" numLanes="1" oneway="1" priority="1" speed="8.33"/>
    <type allow="rail_fast" id="railway.highspeed" numLanes="1" oneway="1" priority="21" speed="69.44"/>
    <type allow="rail_urban" id="railway.light_rail" numLanes="1" oneway="1" priority="19" speed="27.78"/>
    <type allow="rail" id="railway.preserved" numLanes="1" oneway="1" priority="16" speed="27.78"/>
    <type allow="rail" id="railway.rail" numLanes="1" oneway="1" priority="20" speed="44.44"/>
    <type allow="rail_urban" id="railway.subway" numLanes="1" oneway="1" priority="18" speed="27.78"/>
    <type allow="tram" id="railway.tram" numLanes="1" oneway="1" priority="17" speed="13.89"/>

    <edge function="internal" id=":1419823148_0">
        <lane disallow="tram rail_urban rail rail_electric rail_fast ship" id=":1419823148_0_0" index="0" length="0.28" shape="1211.93,207.97 1211.74,207.69" speed="16.67"/>
        <lane disallow="tram rail_urban rail rail_electric rail_fast ship" id=":1419823148_0_1" index="1" length="0.28" shape="1214.56,206.14 1214.40,205.91" speed="16.67"/>
        <lane disallow="tram rail_urban rail rail_electric rail_fast ship" id=":1419823148_0_2" index="2" length="0.28" shape="1217.19,204.32 1217.07,204.14" speed="16.67"/>
    </edge>
    <edge function="internal" id=":1559388926_0">
        <lane disallow="tram rail_urban rail rail_electric rail_fast ship" id=":1559388926_0_0" index="0" length="8.33" shape="1321.06,200.78 1319.51,202.18 1318.84,203.85 1319.05,205.80 1320.15,208.02" speed="6.25"/>
        <lane disallow="tram rail_urban rail rail_electric rail_fast ship" id=":1559388926_0_1" index="1" length="10.98" shape="1321.06,200.78 1318.33,202.93 1316.82,205.15 1316.53,207.43 1317.47,209.77" speed="7.07"/>
    </edge>
    <edge function="internal" id=":1559388926_2">
        <lane disallow="tram rail_urban rail rail_electric rail_fast ship" id=":1559388926_2_0" index="0" length="8.97" shape="1311.98,196.05 1313.81,197.82 1315.73,198.70 1317.74,198.68 1319.85,197.76" speed="6.75"/>
    </edge>
    <edge function="internal" id=":1559388926_3">
        <lane disallow="tram rail_urban rail rail_electric rail_fast ship" id=":1559388926_3_0" index="0" length="14.10" shape="1311.98,196.05 1314.61,199.45 1316.28,201.88 1317.84,204.38 1320.15,208.02" speed="16.67"/>
        <lane disallow="tram rail_urban rail rail_electric rail_fast ship" id=":1559388926_3_1" index="1" length="14.10" shape="1309.46,198.02 1312.04,201.36 1313.67,203.74 1315.20,206.20 1317.47,209.77" speed="16.67"/>
        <lane disallow="tram rail_urban rail rail_electric rail_fast ship" id=":1559388926_3_2" index="2" length="14.10" shape="1306.94,199.99 1309.47,203.27 1311.07,205.61 1312.57,208.02 1314.79,211.52" speed="16.67"/>
        <lane disallow="tram rail_urban rail rail_electric rail_fast ship" id=":1559388926_3_3" index="3" length="14.10" shape="1304.42,201.96 1306.90,205.18 1308.47,207.47 1309.94,209.84 1312.12,213.27" speed="16.67"/>
    </edge>
    <edge function="internal" id=":1559388929_0">
        <lane disallow="tram rail_urban rail rail_electric rail_fast ship" id=":1559388929_0_0" index="0" length="4.67" shape="1414.82,137.79 1416.26,137.82 1417.02,138.29 1417.11,139.18 1416.52,140.49" speed="3.65"/>
    </edge>
    <edge function="internal" id=":315132617_0">
        <lane allow="pedestrian delivery bicycle" id=":315132617_0_0" index="0" length="17.48" shape="1127.76,308.41 1132.39,305.22 1135.47,302.08 1137.78,299.06 1140.10,296.23" speed="11.12"/>
    </edge>
    <edge function="internal" id=":315132617_1">
        <lane disallow="tram rail_urban rail rail_electric rail_fast ship" id=":315132617_1_0" index="0" length="17.48" shape="1127.76,308.41 1142.34,298.99" speed="16.67"/>
        <lane disallow="tram rail_urban rail rail_electric rail_fast ship" id=":315132617_1_1" index="1" length="17.48" shape="1129.33,311.20 1144.02,301.72" speed="16.67"/>
        <lane disallow="tram rail_urban rail rail_electric rail_fast ship" id=":315132617_1_2" index="2" length="17.48" shape="1130.91,313.98 1145.70,304.44" speed="16.67"/>
    </edge>
    <edge function="internal" id=":315132643_0">
        <lane disallow="tram rail_urban rail rail_electric rail_fast ship" id=":315132643_0_0" index="0" length="10.95" shape="1255.50,271.47 1253.84,269.80 1251.65,269.14 1248.92,269.49 1245.64,270.86" speed="7.31"/>
        <lane disallow="tram rail_urban rail rail_electric rail_fast ship" id=":315132643_0_1" index="1" length="13.30" shape="1255.50,271.47 1253.10,268.61 1250.41,267.08 1247.43,266.89 1244.15,268.03" speed="7.99"/>
    </edge>
    <edge function="internal" id=":315132643_2">
        <lane disallow="tram rail_urban rail rail_electric rail_fast ship" id=":315132643_2_0" index="0" length="17.50" shape="1255.50,271.47 1252.50,267.26 1250.08,264.66 1247.54,262.13 1244.21,258.15" speed="16.67"/>
    </edge>
    <edge function="internal" id=":315132643_3">
        <lane disallow="tram rail_urban rail rail_electric rail_fast ship" id=":315132643_3_0" index="0" length="8.73" shape="1258.20,269.76 1254.95,265.89 1251.74,264.10" speed="9.26"/>
    </edge>
    <edge function="internal" id=":315132643_4">
        <lane disallow="tram rail_urban rail rail_electric rail_fast ship" id=":315132643_4_0" index="0" length="17.97" shape="1258.20,269.76 1255.16,265.48 1252.70,262.83 1250.14,260.26 1246.75,256.22" speed="16.67"/>
        <lane disallow="tram rail_urban rail rail_electric rail_fast ship" id=":315132643_4_1" index="1" length="17.97" shape="1260.90,268.04 1257.82,263.69 1255.33,261.00 1252.73,258.39 1249.30,254.28" speed="16.67"/>
        <lane disallow="tram rail_urban rail rail_electric rail_fast ship" id=":315132643_4_2" index="2" length="17.97" shape="1260.90,268.04 1251.85,252.34" speed="16.67"/>
    </edge>
    <edge function="internal" id=":315132643_7">
        <lane disallow="tram rail_urban rail rail_electric rail_fast ship" id=":315132643_7_0" index="0" length="9.44" shape="1251.74,264.10 1251.27,263.84 1247.17,263.61 1242.65,265.20" speed="9.26"/>
    </edge>
    <edge function="internal" id=":3281025936_0">
        <lane allow="pedestrian delivery bicycle" id=":3281025936_0_0" index="0" length="11.25" shape="1211.65,288.85 1208.93,290.73 1207.46,292.62 1206.29,294.74 1204.46,297.27" speed="11.12"/>
    </edge>
    <edge function="internal" id=":3281025936_1">
        <lane disallow="tram rail_urban rail rail_electric rail_fast ship" id=":3281025936_1_0" index="0" length="11.46" shape="1211.65,288.85 1201.95,294.69" speed="16.67"/>
        <lane disallow="tram rail_urban rail rail_electric rail_fast ship" id=":3281025936_1_1" index="1" length="11.46" shape="1210.16,286.02 1200.33,291.93" speed="16.67"/>
        <lane disallow="tram rail_urban rail rail_electric rail_fast ship" id=":3281025936_1_2" index="2" length="11.46" shape="1208.66,283.19 1198.72,289.17" speed="16.67"/>
    </edge>
    <edge function="internal" id=":3528406270_0">
        <lane allow="pedestrian delivery bicycle" id=":3528406270_0_0" index="0" length="4.67" shape="1250.06,421.12 1250.08,422.56 1249.64,423.34 1248.76,423.46 1247.42,422.92" speed="3.65"/>
    </edge>
    <edge function="internal" id=":3528406272_0">
        <lane allow="pedestrian delivery bicycle" id=":3528406272_0_0" index="0" length="4.67" shape="1290.40,399.97 1289.29,400.91 1288.42,401.07 1287.76,400.46 1287.32,399.09" speed="3.65"/>
    </edge>
    <edge function="internal" id=":3838286990_0">
        <lane disallow="tram rail_urban rail rail_electric rail_fast ship" id=":3838286990_0_0" index="0" length="0.30" shape="1339.00,189.41 1338.75,189.57" speed="13.89"/>
    </edge>
    <edge function="internal" id=":3838286990_1">
        <lane disallow="tram rail_urban rail rail_electric rail_fast ship" id=":3838286990_1_0" index="0" length="0.30" shape="1337.04,186.87 1337.29,186.71" speed="13.89"/>
    </edge>
    <edge function="internal" id=":3838286994_0">
        <lane disallow="tram rail_urban rail rail_electric rail_fast ship" id=":3838286994_0_0" index="0" length="0.21" shape="1243.63,257.39 1243.81,257.27" speed="16.67"/>
        <lane disallow="tram rail_urban rail rail_electric rail_fast ship" id=":3838286994_0_1" index="1" length="0.21" shape="1246.29,255.60 1246.46,255.48" speed="16.67"/>
        <lane disallow="tram rail_urban rail rail_electric rail_fast ship" id=":3838286994_0_2" index="2" length="0.21" shape="1248.95,253.81 1249.12,253.70" speed="16.67"/>
        <lane disallow="tram rail_urban rail rail_electric rail_fast ship" id=":3838286994_0_3" index="3" length="0.21" shape="1251.60,252.02 1251.77,251.91" speed="16.67"/>
    </edge>
    <edge function="internal" id=":3838286995_0">
        <lane disallow="tram rail_urban rail rail_electric rail_fast ship" id=":3838286995_0_0" index="0" length="5.24" shape="1321.26,209.71 1323.99,213.89" speed="16.67"/>
        <lane disallow="tram rail_urban rail rail_electric rail_fast ship" id=":3838286995_0_1" index="1" length="5.24" shape="1321.26,209.71 1321.72,211.34 1321.29,212.68 1320.85,214.02 1321.32,215.65" speed="16.67"/>
        <lane disallow="tram rail_urban rail rail_electric rail_fast ship" id=":3838286995_0_2" index="2" length="5.24" shape="1318.58,211.46 1321.32,215.65" speed="16.67"/>
        <lane disallow="tram rail_urban rail rail_electric rail_fast ship" id=":3838286995_0_3" index="3" length="5.24" shape="1315.90,213.22 1318.64,217.40" speed="16.67"/>
        <lane disallow="tram rail_urban rail rail_electric rail_fast ship" id=":3838286995_0_4" index="4" length="5.24" shape="1313.23,214.97 1315.96,219.15" speed="16.67"/>
    </edge>
    <edge function="internal" id=":4693815358_0">
        <lane allow="pedestrian delivery bicycle" id=":4693815358_0_0" index="0" length="4.67" shape="1264.51,424.95 1264.37,426.39 1263.85,427.11 1262.96,427.13 1261.69,426.45" speed="3.65"/>
    </edge>
    <edge function="internal" id=":4693815365_0">
        <lane allow="pedestrian delivery bicycle" id=":4693815365_0_0" index="0" length="5.44" shape="1231.47,316.39 1230.47,315.14 1229.37,314.48 1228.19,314.40 1226.92,314.91" speed="5.23"/>
    </edge>
    <edge function="internal" id=":4693815365_1">
        <lane allow="pedestrian delivery bicycle" id=":4693815365_1_0" index="0" length="10.94" shape="1231.47,316.39 1230.25,313.58 1230.30,311.18 1231.64,309.18 1234.26,307.59" speed="5.56"/>
    </edge>
    <edge function="internal" id=":4693815365_2">
        <lane allow="pedestrian delivery bicycle" id=":4693815365_2_0" index="0" length="4.67" shape="1231.47,316.39 1231.52,314.95 1231.99,314.19 1232.88,314.11 1234.19,314.71" speed="3.65"/>
    </edge>
    <edge function="internal" id=":4693815365_3">
        <lane allow="pedestrian delivery bicycle" id=":4693815365_3_0" index="0" length="5.19" shape="1235.51,310.53 1234.27,311.29 1233.64,312.24 1233.61,313.38 1234.19,314.71" speed="4.89"/>
    </edge>
    <edge function="internal" id=":4693815365_4">
        <lane allow="pedestrian delivery bicycle" id=":4693815365_4_0" index="0" length="9.66" shape="1235.51,310.53 1232.88,311.66 1231.10,312.49 1229.37,313.43 1226.92,314.91" speed="5.56"/>
    </edge>
    <edge function="internal" id=":4693815365_5">
        <lane allow="pedestrian delivery bicycle" id=":4693815365_5_0" index="0" length="4.67" shape="1235.51,310.53 1234.10,310.27 1233.41,309.69 1233.47,308.80 1234.26,307.59" speed="3.65"/>
    </edge>
    <edge function="internal" id=":4693815365_6">
        <lane allow="pedestrian delivery bicycle" id=":4693815365_6_0" index="0" length="10.12" shape="1225.25,312.17 1227.82,310.64 1229.63,309.64 1231.51,308.77 1234.26,307.59" speed="5.56"/>
    </edge>
    <edge function="internal" id=":4693815365_7">
        <lane allow="pedestrian delivery bicycle" id=":4693815365_7_0" index="0" length="10.57" shape="1225.25,312.17 1227.82,311.11 1230.16,311.18 1232.29,312.38 1234.19,314.71" speed="5.56"/>
    </edge>
    <edge function="internal" id=":4693815365_8">
        <lane allow="pedestrian delivery bicycle" id=":4693815365_8_0" index="0" length="4.67" shape="1225.25,312.17 1226.70,312.23 1227.45,312.71 1227.53,313.60 1226.92,314.91" speed="3.65"/>
    </edge>
    <edge function="internal" id=":4693815368_0">
        <lane allow="pedestrian delivery bicycle" id=":4693815368_0_0" index="0" length="5.02" shape="1218.24,323.87 1217.35,322.81 1216.34,322.29 1215.21,322.31 1213.95,322.86" speed="5.05"/>
    </edge>
    <edge function="internal" id=":4693815368_1">
        <lane allow="pedestrian delivery bicycle" id=":4693815368_1_0" index="0" length="10.20" shape="1218.24,323.87 1217.11,321.31 1217.08,319.01 1218.15,316.96 1220.31,315.18" speed="5.56"/>
    </edge>
    <edge function="internal" id=":4693815368_2">
        <lane allow="pedestrian delivery bicycle" id=":4693815368_2_0" index="0" length="4.67" shape="1218.24,323.87 1218.28,322.43 1218.75,321.67 1219.64,321.59 1220.95,322.18" speed="3.65"/>
    </edge>
    <edge function="internal" id=":4693815368_3">
        <lane allow="pedestrian delivery bicycle" id=":4693815368_3_0" index="0" length="5.01" shape="1221.97,317.92 1220.91,318.79 1220.39,319.79 1220.40,320.92 1220.95,322.18" speed="5.03"/>
    </edge>
    <edge function="internal" id=":4693815368_4">
        <lane allow="pedestrian delivery bicycle" id=":4693815368_4_0" index="0" length="9.42" shape="1221.97,317.92 1213.95,322.86" speed="5.56"/>
    </edge>
    <edge function="internal" id=":4693815368_5">
        <lane allow="pedestrian delivery bicycle" id=":4693815368_5_0" index="0" length="4.67" shape="1221.97,317.92 1220.53,317.86 1219.77,317.38 1219.70,316.49 1220.31,315.18" speed="3.65"/>
    </edge>
    <edge function="internal" id=":4693815368_6">
        <lane allow="pedestrian delivery bicycle" id=":4693815368_6_0" index="0" length="9.45" shape="1212.26,320.15 1220.31,315.18" speed="5.56"/>
    </edge>
    <edge function="internal" id=":4693815368_7">
        <lane allow="pedestrian delivery bicycle" id=":4693815368_7_0" index="0" length="10.19" shape="1212.26,320.15 1214.81,319.02 1217.11,318.98 1219.16,320.04 1220.95,322.18" speed="5.56"/>
    </edge>
    <edge function="internal" id=":4693815368_8">
        <lane allow="pedestrian delivery bicycle" id=":4693815368_8_0" index="0" length="4.67" shape="1212.26,320.15 1213.70,320.19 1214.46,320.66 1214.55,321.55 1213.95,322.86" speed="3.65"/>
    </edge>
    <edge function="internal" id=":4693815369_0">
        <lane allow="pedestrian delivery bicycle" id=":4693815369_0_0" index="0" length="4.67" shape="1273.32,406.51 1273.27,407.95 1272.80,408.71 1271.91,408.79 1270.60,408.19" speed="3.65"/>
    </edge>
    <edge function="internal" id=":4693815370_0">
        <lane allow="pedestrian delivery bicycle" id=":4693815370_0_0" index="0" length="5.15" shape="1196.87,349.10 1195.90,348.02 1194.84,347.48 1193.69,347.48 1192.45,348.02" speed="5.16"/>
    </edge>
    <edge function="internal" id=":4693815370_1">
        <lane allow="pedestrian delivery bicycle" id=":4693815370_1_0" index="0" length="10.34" shape="1196.87,349.10 1195.61,346.54 1195.49,344.22 1196.52,342.14 1198.68,340.29" speed="5.56"/>
    </edge>
    <edge function="internal" id=":4693815370_2">
        <lane allow="pedestrian delivery bicycle" id=":4693815370_2_0" index="0" length="4.67" shape="1196.87,349.10 1196.85,347.65 1197.29,346.87 1198.17,346.75 1199.51,347.29" speed="3.65"/>
    </edge>
    <edge function="internal" id=":4693815370_3">
        <lane allow="pedestrian delivery bicycle" id=":4693815370_3_0" index="0" length="5.04" shape="1200.39,342.99 1199.34,343.90 1198.84,344.91 1198.90,346.04 1199.51,347.29" speed="5.00"/>
    </edge>
    <edge function="internal" id=":4693815370_4">
        <lane allow="pedestrian delivery bicycle" id=":4693815370_4_0" index="0" length="9.40" shape="1200.39,342.99 1192.45,348.02" speed="5.56"/>
    </edge>
    <edge function="internal" id=":4693815370_5">
        <lane allow="pedestrian delivery bicycle" id=":4693815370_5_0" index="0" length="4.67" shape="1200.39,342.99 1198.95,342.96 1198.18,342.50 1198.09,341.61 1198.68,340.29" speed="3.65"/>
    </edge>
    <edge function="internal" id=":4693815370_6">
        <lane allow="pedestrian delivery bicycle" id=":4693815370_6_0" index="0" length="6.66" shape="1192.70,340.31 1193.77,341.29 1195.12,341.61 1196.75,341.27 1198.68,340.29" speed="5.56"/>
    </edge>
    <edge function="internal" id=":4693815370_7">
        <lane allow="pedestrian delivery bicycle" id=":4693815370_7_0" index="0" length="9.79" shape="1192.70,340.31 1194.57,342.51 1196.13,343.78 1197.68,345.06 1199.51,347.29" speed="5.56"/>
    </edge>
    <edge function="internal" id=":4693815370_8">
        <lane allow="pedestrian delivery bicycle" id=":4693815370_8_0" index="0" length="8.83" shape="1192.70,340.31 1194.07,342.75 1194.49,344.85 1193.94,346.60 1192.45,348.02" speed="5.56"/>
    </edge>
    <edge function="internal" id=":4693815370_9">
        <lane allow="pedestrian delivery bicycle" id=":4693815370_9_0" index="0" length="9.39" shape="1190.74,345.31 1198.68,340.29" speed="5.56"/>
    </edge>
    <edge function="internal" id=":4693815370_10">
        <lane allow="pedestrian delivery bicycle" id=":4693815370_10_0" index="0" length="10.17" shape="1190.74,345.31 1193.23,344.21 1195.52,344.17 1197.62,345.20 1199.51,347.29" speed="5.56"/>
    </edge>
    <edge function="internal" id=":4693815370_11">
        <lane allow="pedestrian delivery bicycle" id=":4693815370_11_0" index="0" length="4.67" shape="1190.74,345.31 1192.18,345.35 1192.95,345.81 1193.04,346.70 1192.45,348.02" speed="3.65"/>
    </edge>
    <edge function="internal" id=":4693815371_0">
        <lane allow="pedestrian delivery bicycle" id=":4693815371_0_0" index="0" length="5.02" shape="1181.94,358.40 1181.03,357.36 1180.01,356.87 1178.88,356.92 1177.64,357.51" speed="5.03"/>
    </edge>
    <edge function="internal" id=":4693815371_1">
        <lane allow="pedestrian delivery bicycle" id=":4693815371_1_0" index="0" length="10.23" shape="1181.94,358.40 1180.75,355.85 1180.68,353.55 1181.71,351.48 1183.85,349.66" speed="5.56"/>
    </edge>
    <edge function="internal" id=":4693815371_2">
        <lane allow="pedestrian delivery bicycle" id=":4693815371_2_0" index="0" length="4.67" shape="1181.94,358.40 1181.95,356.96 1182.41,356.19 1183.29,356.08 1184.62,356.65" speed="3.65"/>
    </edge>
    <edge function="internal" id=":4693815371_3">
        <lane allow="pedestrian delivery bicycle" id=":4693815371_3_0" index="0" length="5.02" shape="1185.56,352.37 1184.51,353.26 1184.00,354.27 1184.04,355.40 1184.62,356.65" speed="5.03"/>
    </edge>
    <edge function="internal" id=":4693815371_4">
        <lane allow="pedestrian delivery bicycle" id=":4693815371_4_0" index="0" length="9.44" shape="1185.56,352.37 1177.64,357.51" speed="5.56"/>
    </edge>
    <edge function="internal" id=":4693815371_5">
        <lane allow="pedestrian delivery bicycle" id=":4693815371_5_0" index="0" length="4.67" shape="1185.56,352.37 1184.11,352.33 1183.35,351.87 1183.26,350.98 1183.85,349.66" speed="3.65"/>
    </edge>
    <edge function="internal" id=":4693815371_6">
        <lane allow="pedestrian delivery bicycle" id=":4693815371_6_0" index="0" length="9.53" shape="1175.86,354.85 1183.85,349.66" speed="5.56"/>
    </edge>
    <edge function="internal" id=":4693815371_7">
        <lane allow="pedestrian delivery bicycle" id=":4693815371_7_0" index="0" length="10.23" shape="1175.86,354.85 1178.39,353.64 1180.69,353.54 1182.77,354.54 1184.62,356.65" speed="5.56"/>
    </edge>
    <edge function="internal" id=":4693815371_8">
        <lane allow="pedestrian delivery bicycle" id=":4693815371_8_0" index="0" length="4.67" shape="1175.86,354.85 1177.30,354.85 1178.08,355.30 1178.19,356.18 1177.64,357.51" speed="3.65"/>
    </edge>
    <edge function="internal" id=":4693815372_0">
        <lane allow="pedestrian delivery bicycle" id=":4693815372_0_0" index="0" length="4.67" shape="1219.60,410.39 1219.59,411.83 1219.13,412.60 1218.24,412.70 1216.92,412.13" speed="3.65"/>
    </edge>
    <edge function="internal" id=":4693815375_0">
        <lane allow="pedestrian delivery bicycle" id=":4693815375_0_0" index="0" length="4.67" shape="1156.68,372.47 1155.43,373.20 1154.54,373.21 1153.99,372.50 1153.80,371.07" speed="3.65"/>
    </edge>
    <edge function="internal" id=":4693815380_0">
        <lane allow="pedestrian delivery bicycle" id=":4693815380_0_0" index="0" length="4.96" shape="1189.94,307.59 1185.84,310.37" speed="5.56"/>
    </edge>
    <edge function="internal" id=":512076239_0">
        <lane disallow="tram rail_urban rail rail_electric rail_fast ship" id=":512076239_0_0" index="0" length="5.64" shape="1300.94,181.37 1301.69,182.69 1302.19,183.60 1302.76,184.47 1303.68,185.68" speed="16.67"/>
        <lane disallow="tram rail_urban rail rail_electric rail_fast ship" id=":512076239_0_1" index="1" length="5.64" shape="1298.21,183.03 1299.06,184.53 1299.64,185.55 1300.30,186.53 1301.35,187.89" speed="16.67"/>
        <lane disallow="tram rail_urban rail rail_electric rail_fast ship" id=":512076239_0_2" index="2" length="5.64" shape="1295.71,185.11 1296.60,186.66 1297.23,187.71 1297.93,188.71 1299.03,190.11" speed="16.67"/>
    </edge>
    <edge function="internal" id=":512076239_3">
        <lane disallow="tram rail_urban rail rail_electric rail_fast ship" id=":512076239_3_0" index="0" length="6.24" shape="1296.58,184.36 1298.58,185.10 1300.36,184.79 1302.02,184.59 1303.68,185.68" speed="16.67"/>
        <lane disallow="tram rail_urban rail rail_electric rail_fast ship" id=":512076239_3_1" index="1" length="6.24" shape="1296.58,184.36 1298.06,185.35 1299.15,185.94 1300.16,186.62 1301.35,187.89" speed="16.67"/>
        <lane disallow="tram rail_urban rail rail_electric rail_fast ship" id=":512076239_3_2" index="2" length="6.24" shape="1294.31,186.65 1295.77,187.62 1296.85,188.19 1297.85,188.86 1299.03,190.11" speed="16.67"/>
        <lane disallow="tram rail_urban rail rail_electric rail_fast ship" id=":512076239_3_3" index="3" length="6.24" shape="1292.28,189.13 1293.65,190.03 1294.67,190.55 1295.60,191.17 1296.71,192.33" speed="16.67"/>
    </edge>
    <edge function="internal" id=":7246499874_0">
        <lane disallow="tram rail_urban rail rail_electric rail_fast ship" id=":7246499874_0_0" index="0" length="14.37" shape="1228.24,234.20 1226.01,230.55 1224.81,227.86 1223.60,225.17 1221.37,221.53" speed="16.67"/>
        <lane disallow="tram rail_urban rail rail_electric rail_fast ship" id=":7246499874_0_1" index="1" length="14.37" shape="1230.85,232.34 1228.65,228.73 1227.46,226.06 1226.27,223.40 1224.06,219.80" speed="16.67"/>
    </edge>
    <edge function="internal" id=":7246499874_2">
        <lane disallow="tram rail_urban rail rail_electric rail_fast ship" id=":7246499874_2_0" index="0" length="16.31" shape="1230.85,232.34 1228.78,228.29 1228.63,225.04 1229.52,221.55 1230.57,216.76" speed="13.74"/>
    </edge>
    <edge function="internal" id=":7246499874_3">
        <lane disallow="tram rail_urban rail rail_electric rail_fast ship" id=":7246499874_3_0" index="0" length="14.14" shape="1233.46,230.49 1231.28,226.91 1230.11,224.27 1228.94,221.64 1226.76,218.07" speed="16.67"/>
    </edge>
    <edge function="internal" id=":7246499874_4">
        <lane disallow="tram rail_urban rail rail_electric rail_fast ship" id=":7246499874_4_0" index="0" length="13.30" shape="1233.46,230.49 1231.18,226.89 1230.14,224.06 1230.04,221.02 1230.57,216.76" speed="13.02"/>
        <lane disallow="tram rail_urban rail rail_electric rail_fast ship" id=":7246499874_4_1" index="1" length="13.30" shape="1233.46,230.49 1231.75,226.97 1231.81,224.16 1232.78,221.13 1233.77,216.98" speed="12.83"/>
        <lane disallow="tram rail_urban rail rail_electric rail_fast ship" id=":7246499874_4_2" index="2" length="13.30" shape="1236.06,228.63 1234.16,225.58 1233.33,223.18 1233.30,220.59 1233.77,216.98" speed="12.01"/>
        <lane disallow="tram rail_urban rail rail_electric rail_fast ship" id=":7246499874_4_3" index="3" length="13.30" shape="1236.06,228.63 1234.71,225.66 1234.99,223.28 1236.03,220.72 1236.97,217.20" speed="11.86"/>
    </edge>
    <edge function="internal" id=":7246560863_0">
        <lane allow="pedestrian delivery bicycle" id=":7246560863_0_0" index="0" length="5.15" shape="1110.82,224.66 1109.39,224.42 1108.22,224.66 1107.32,225.38 1106.69,226.58" speed="5.16"/>
    </edge>
    <edge function="internal" id=":7246560863_1">
        <lane allow="pedestrian delivery bicycle" id=":7246560863_1_0" index="0" length="10.34" shape="1110.82,224.66 1108.24,223.45 1106.70,221.71 1106.21,219.44 1106.75,216.64" speed="5.56"/>
    </edge>
    <edge function="internal" id=":7246560863_2">